# generated using pymatgen
data_BaNiO3
_symmetry_space_group_name_H-M   'P 1'
_cell_length_a   5.71772370
_cell_length_b   5.71772370
_cell_length_c   4.82396122
_cell_angle_alpha   90.00000000
_cell_angle_beta   90.00000000
_cell_angle_gamma   119.99999998
_symmetry_Int_Tables_number   1
_chemical_formula_structural   BaNiO3
_chemical_formula_sum   'Ba2 Ni2 O6'
_cell_volume   136.578006595
_cell_formula_units_Z   2
loop_
 _symmetry_equiv_pos_site_id
 _symmetry_equiv_pos_as_xyz
  1  'x, y, z'
loop_
 _atom_site_type_symbol
 _atom_site_label
 _atom_site_symmetry_multiplicity
 _atom_site_fract_x
 _atom_site_fract_y
 _atom_site_fract_z
 _atom_site_occupancy
  O  O1  1  0.853531  0.707062  0.750000  1
  O  O2  1  0.146469  0.853531  0.250000  1
  O  O3  1  0.707062  0.853531  0.250000  1
  O  O4  1  0.292938  0.146469  0.750000  1
  O  O5  1  0.146469  0.292938  0.250000  1
  O  O6  1  0.853531  0.146469  0.750000  1
  Ni  Ni7  1  0.000000  0.000000  0.500000  1
  Ni  Ni8  1  0.000000  0.000000  0.000000  1
  Ba  Ba9  1  0.666667  0.333333  0.250000  1
  Ba  Ba10  1  0.333333  0.666667  0.750000  1
